
Circuit: * circuit simulation lab 2 t<0

Doing analysis at TEMP = 27.000000 and TNOM = 27.000000


No. of Data Rows : 1
op_TAB
@g1[i] = -2.44673e-04
@r1[i] = -2.33449e-04
@r2[i] = -2.44673e-04
@r3[i] = -1.12237e-05
@r4[i] = 1.225637e-03
@r5[i] = 2.446726e-04
@r6[i] = -9.92188e-04
@r7[i] = -9.92188e-04
v(1) = 5.233347e+00
v(2) = 4.993818e+00
v(3) = 4.495481e+00
v(5) = 5.028594e+00
v(6) = 5.796288e+00
v(7) = -2.00401e+00
v(8) = -3.03427e+00
v(9) = -2.00401e+00
h1#branch = -9.92188e-04
v1#branch = -2.33449e-04
v2#branch = 9.921880e-04
op_END
ngspice-31 done
