
Circuit: * circuit simulation lab 2 t>0

Doing analysis at TEMP = 27.000000 and TNOM = 27.000000


Initial Transient Solution
--------------------------

Node                                   Voltage
----                                   -------
1                                            0
2                                            0
3                                            0
5                                            0
6                                      8.83056
7                                            0
9                                            0
8                                            0
h1#branch                                    0
v2#branch                                    0
v1#branch                                    0


No. of Data Rows : 1012

The file "trans.ps" may be printed on a postscript printer.
trans_FIG
ngspice-31 done
