
Circuit: * circuit simulation lab 2 t=0

Doing analysis at TEMP = 27.000000 and TNOM = 27.000000


No. of Data Rows : 1
op_TAB
@g1[i] = -2.12269e-18
@r1[i] = 2.025320e-18
@r2[i] = 2.122693e-18
@r3[i] = -9.73728e-20
@r4[i] = 4.329577e-19
@r5[i] = 2.814401e-03
@r6[i] = -4.33681e-19
@r7[i] = -8.67138e-19
v(1) = 0.000000e+00
v(2) = -2.07807e-15
v(3) = -6.40146e-15
v(5) = -1.77636e-15
v(6) = 8.830562e+00
v(7) = 8.759452e-16
v(8) = 1.776357e-15
v(9) = 8.759452e-16
h1#branch = 2.814401e-03
v1#branch = -2.02532e-18
v2#branch = -4.33681e-19
v3#branch = -2.81440e-03
op_END
ngspice-31 done
