
Circuit: * circuit simulation

Doing analysis at TEMP = 27.000000 and TNOM = 27.000000


No. of Data Rows : 1
op_TAB
@g1[i] = -2.44673e-04
@i1[current] = 1.046207e-03
@r1[i] = 2.334490e-04
@r2[i] = 2.446726e-04
@r3[i] = -1.12237e-05
@r4[i] = -1.22564e-03
@r5[i] = -1.29088e-03
@r6[i] = 9.921880e-04
@r7[i] = 9.921880e-04
v(1) = 5.233347e+00
v(2) = 4.993818e+00
v(3) = 4.495481e+00
v(4) = 5.028594e+00
v(5) = 9.078902e+00
v(6) = -2.00401e+00
v(7) = -2.00401e+00
v(8) = -3.03427e+00
h1#branch = 5.401883e-05
v1#branch = -2.33449e-04
v2#branch = 9.921880e-04
op_END
ngspice-31 done
