
Circuit: ac/dc converter

.trans: no such command available in ngspice
Doing analysis at TEMP = 27.000000 and TNOM = 27.000000

Warning: vs: no DC value, transient time 0 value used

Initial Transient Solution
--------------------------

Node                                   Voltage
----                                   -------
1                                      19.3249
2                                     -210.675
3                                    -0.675109
4                                      18.6498
5                                      12.1519
7                                      11.4768
8                                      10.8017
9                                      10.1266
10                                     9.45151
11                                      8.7764
12                                     8.10129
13                                     7.42619
14                                     6.75108
15                                     6.07597
16                                     5.40086
17                                     4.72575
18                                     4.05065
19                                     3.37554
20                                     2.70043
21                                     2.02532
22                                     1.35022
23                                    0.675108
vs#branch                                    0
ex#branch                           0.00216595


No. of Data Rows : 20001

  Measurements for Transient Analysis

ymax                =  1.215168e+01 at=  1.000628e-01
ymin                =  1.179416e+01 at=  1.179828e-01
yavg                =  1.199012e+01 from=  2.000000e-02 to=  2.000028e-01

ERROR: (internal)  This operation is not defined for display type printf.
Can't open viewport for graphics.

The file "vospice50.ps" may be printed on a postscript printer.
vospice50_FIG
Doing analysis at TEMP = 27.000000 and TNOM = 27.000000

Warning: vs: no DC value, transient time 0 value used

No. of Data Rows : 1

  Measurements for Transient Analysis


	Node                                  Voltage
	----                                  -------
	----	-------
	V(23)                            6.751078e-01
	V(22)                            1.350216e+00
	V(21)                            2.025323e+00
	V(20)                            2.700431e+00
	V(19)                            3.375539e+00
	V(18)                            4.050647e+00
	V(17)                            4.725755e+00
	V(16)                            5.400862e+00
	V(15)                            6.075970e+00
	V(14)                            6.751078e+00
	V(13)                            7.426186e+00
	V(12)                            8.101294e+00
	V(11)                            8.776401e+00
	V(10)                            9.451509e+00
	V(9)                             1.012662e+01
	V(8)                             1.080172e+01
	V(7)                             1.147683e+01
	V(5)                             1.215194e+01
	V(4)                             1.864978e+01
	V(3)                             -6.75109e-01
	V(2)                             -2.10675e+02
	V(1)                             1.932489e+01

	Source	Current
	------	-------

	@dp18[id]                        2.165948e-03
	@dp17[id]                        2.165948e-03
	@dp16[id]                        2.165948e-03
	@dp15[id]                        2.165948e-03
	@dp14[id]                        2.165948e-03
	@dp13[id]                        2.165948e-03
	@dp12[id]                        2.165948e-03
	@dp11[id]                        2.165948e-03
	@dp10[id]                        2.165948e-03
	@dp9[id]                         2.165948e-03
	@dp8[id]                         2.165948e-03
	@dp7[id]                         2.165948e-03
	@dp6[id]                         2.165948e-03
	@dp5[id]                         2.165948e-03
	@dp4[id]                         2.165948e-03
	@dp3[id]                         2.165948e-03
	@dp2[id]                         2.165948e-03
	@dp1[id]                         2.165948e-03
	@r1[i]                           2.165948e-03
	@c1[i]                           0.000000e+00
	@d4[id]                          2.166008e-03
	@d3[id]                          -1.93349e-11
	@d2[id]                          2.166008e-03
	@d1[id]                          -1.93349e-11
	@fds[i]                          0.000000e+00
	ex#branch                        2.165948e-03
	vs#branch                        0.000000e+00

 Capacitor models (Fixed capacitor)
      model                     C

        cap                     0
         cj                     0
       cjsw                     0
       defw                 1e-05
       defl                     0
     narrow                     0
      short                     0
        del                     0
        tc1                     0
        tc2                     0
         di                     0
      thick                     0
     bv_max                 1e+99

 Diode models (Junction Diode model)
      model               default

      level                     1
         is                 1e-14
        jsw                     0
         rs                     0
        trs                     0
       trs2                     0
          n                     1
         ns                     1
         tt                     0
       ttt1                     0
       ttt2                     0
        cjo                     0
         vj                     1
          m                   0.5
        tm1                     0
        tm2                     0
        cjp                     0
        php                     1
       mjsw                  0.33
        ikf                     0
        ikr                     0
        nbv                     1
       area                     1
         pj                     0
       tlev                     0
      tlevc                     0
         eg                  1.11
        xti                     3
        cta                     0
        ctp                     0
        tpb                     0
       tphp                     0
       jtun                     0
     jtunsw                     0
       ntun                    30
     xtitun                     3
        keg                     1
         kf                     0
         af                     1
         fc                   0.5
        fcs                   0.5
         bv                     0
        ibv                 0.001
        tcv                     0
     fv_max                 1e+99
     bv_max                 1e+99
        isr                 1e-14
         nr                     1

 Resistor models (Simple linear resistor)
      model                     R

        rsh                     0
     narrow                     0
      short                     0
        tc1                     0
        tc2                     0
        tce                     0
       defw                 1e-05
          l                 1e-05
         kf                     0
         af                     0
          r                     0
     bv_max                 1e+99
         lf                     1
         wf                     1
         ef                     1

 Capacitor: Fixed capacitor
     device                    c1
      model                     C
capacitance                 3e-06
      dtemp                     0
     bv_max                 1e+99
          i                     0
          p                     0

 CCCS: Current controlled current source
     device                   fds
          m                     0
          i                     0
          v                  -230
          p                    -0

 Diode: Junction Diode model
     device                  dp18                  dp17                  dp16
      model               default               default               default
         vd              0.675108              0.675108              0.675108
         id            0.00216595            0.00216595            0.00216595
         gd             0.0837407             0.0837407             0.0837407
         cd                     0                     0                     0

 Diode: Junction Diode model
     device                  dp15                  dp14                  dp13
      model               default               default               default
         vd              0.675108              0.675108              0.675108
         id            0.00216595            0.00216595            0.00216595
         gd             0.0837407             0.0837407             0.0837407
         cd                     0                     0                     0

 Diode: Junction Diode model
     device                  dp12                  dp11                  dp10
      model               default               default               default
         vd              0.675108              0.675108              0.675108
         id            0.00216595            0.00216595            0.00216595
         gd             0.0837407             0.0837407             0.0837407
         cd                     0                     0                     0

 Diode: Junction Diode model
     device                   dp9                   dp8                   dp7
      model               default               default               default
         vd              0.675108              0.675108              0.675108
         id            0.00216595            0.00216595            0.00216595
         gd             0.0837407             0.0837407             0.0837407
         cd                     0                     0                     0

 Diode: Junction Diode model
     device                   dp6                   dp5                   dp4
      model               default               default               default
         vd              0.675108              0.675108              0.675108
         id            0.00216595            0.00216595            0.00216595
         gd             0.0837407             0.0837407             0.0837407
         cd                     0                     0                     0

 Diode: Junction Diode model
     device                   dp3                   dp2                   dp1
      model               default               default               default
         vd              0.675108              0.675108              0.675108
         id            0.00216595            0.00216595            0.00216595
         gd             0.0837407             0.0837407             0.0837407
         cd                     0                     0                     0

 Diode: Junction Diode model
     device                    d4                    d3                    d2
      model               default               default               default
         vd              0.675109              -19.3249              0.675109
         id            0.00216601          -1.93349e-11            0.00216601
         gd             0.0837431                 1e-12             0.0837431
         cd                     0                     0                     0

 Diode: Junction Diode model
     device                    d1
      model               default
         vd              -19.3249
         id          -1.93349e-11
         gd                 1e-12
         cd                     0

 Resistor: Simple linear resistor
     device                    r1
      model                     R
 resistance                  3000
         ac                  3000
      dtemp                     0
     bv_max                 1e+99
      noisy                     1
          i            0.00216595
          p              0.014074

 VCVS: Voltage controlled voltage source
     device                    ex
          i            0.00216595
          v                   -20
          p             -0.043319

 Vsource: Independent voltage source
     device                    vs
         dc                     0
      acmag                     0
      pulse                     0
                              230
                               50
                                0
                                0
                               90
        sin                     0
                              230
                               50
                                0
                                0
                               90
        exp                     0
                              230
                               50
                                0
                                0
                               90
        pwl                     0
                              230
                               50
                                0
                                0
                               90
       sffm                     0
                              230
                               50
                                0
                                0
                               90
         am                     0
                              230
                               50
                                0
                                0
                               90
    trnoise                     0
                              230
                               50
                                0
                                0
                               90
   trrandom                     0
                              230
                               50
                                0
                                0
                               90
          i                     0
          p                    -0


Total analysis time (seconds) = 0.441

Total elapsed time (seconds) = 0.460 

Total DRAM available = 7838.949 MB.
DRAM currently available = 4018.781 MB.
Total ngspice program size =   39.012 MB.
Resident set size =   18.043 MB.
Shared ngspice pages =    8.102 MB.
Text (code) pages =    5.070 MB.
Stack = 0 bytes.
Library pages =   19.270 MB.

